LAMMPS (2 Aug 2023 - Development - patch_2Aug2023-219-g06e2d5d306)
# LAMMPS input file for Lennard-Jones simulation. Second stage: Lennard-Jones simulation
units lj
dimension 3
boundary p p p
atom_style sphere

# Read the initial configuration from a file
read_data random_initial_config_2_types.dat
Reading data file ...
  orthogonal box = (0 0 0) to (46.415888 46.415888 46.415888)
  reading atoms ...
  1000 atoms
  reading velocities ...
  1000 velocities

# Attribute a velocity to each atom
#velocity all create 1 83

# Define the potential
pair_style lj/cut 2.5
pair_modify shift yes
pair_coeff 1 1 10 1.0
pair_coeff 2 2 10 1.0
pair_coeff 1 2 100 2.0

# Define the integrator
fix 1 all nvt temp 1 1 1

# Define the timestep
timestep 0.001

# Define the output
thermo_style custom step time temp density
thermo 10000
restart 10000 lj.restart1 lj.restart2
dump 1 all custom 1000 traj_2_types.lammpstrj id type x y z #ix iy iz

# Run the simulation
run 10000000
Generated 0 of 1 mixed pair_coeff terms from geometric mixing rule
Step          Time           Temp         Density
0   0              1.0227958      0.0052359878
Averages over the last 501 of 1001 rows, steps 5000000 to 10000000:
Temp Density
1.0032 0.00523599
Loop time of 335.02 on 8 procs for 10000000 steps with 1000 atoms
